%njobs=10
%nproc=56
%mem=3GB
%chk=4znn_01_gebf_pm6.chk
%int=acc2e=12
#P pm6
scf(noincfock,novaracc,fermi,maxcycle=3000,ndamp=64,xqc)

gebf{{frag=read charge=NPA}}

0 1
N                -6.8150000000       -0.6680000000        1.6070000000
C                -5.7140000000        0.0020000000        2.3730000000
C                -4.3570000000       -0.6730000000        2.5880000000
O                -4.2120000000       -1.8700000000        2.4920000000
N                -3.3810000000        0.1250000000        2.9530000000
C                -2.0620000000       -0.3900000000        3.2740000000
C                -1.6360000000        0.1750000000        4.6000000000
O                -1.7440000000        1.3560000000        4.8620000000
C                -0.9930000000       -0.0450000000        2.1970000000
C                 0.3900000000       -0.4880000000        2.6400000000
C                -1.3780000000       -0.6620000000        0.8970000000
N                -1.0950000000       -0.7000000000        5.4150000000
C                -0.5720000000       -0.3110000000        6.6690000000
C                 0.8400000000       -0.8540000000        6.7920000000
O                 1.0270000000       -2.0220000000        6.7200000000
C                -1.4110000000       -0.9130000000        7.7970000000
C                -0.7270000000       -0.6450000000        9.1230000000
C                -2.8000000000       -0.3490000000        7.7890000000
N                 1.8100000000        0.0020000000        7.0230000000
C                 3.1910000000       -0.4290000000        7.1010000000
C                 3.9110000000        0.2580000000        8.2290000000
O                 4.0640000000        1.4780000000        8.2280000000
C                 3.8710000000       -0.1030000000        5.7480000000
C                 5.2470000000       -0.6430000000        5.5810000000
N                 5.8610000000       -0.6890000000        4.3530000000
C                 6.1080000000       -1.1970000000        6.4480000000
C                 7.0590000000       -1.2270000000        4.4820000000
N                 7.2390000000       -1.5230000000        5.7510000000
N                 4.3640000000       -0.5270000000        9.1890000000
C                 5.0670000000        0.0200000000       10.3260000000
C                 4.2710000000        0.8170000000       11.2960000000
O                 4.3590000000        2.0330000000       11.3670000000
N                 3.4920000000        0.1040000000       12.0730000000
C                 2.5850000000        0.6770000000       13.0850000000
C                 3.0060000000        0.0470000000       14.3610000000
O                 2.9580000000       -1.1690000000       14.5150000000
C                 1.1270000000        0.3300000000       12.8270000000
C                 0.2480000000        0.6750000000       14.0380000000
C                 0.6740000000        1.0470000000       11.5960000000
N                 3.4810000000        0.8870000000       15.2620000000
C                 4.1630000000        0.3920000000       16.4420000000
C                 3.4240000000        0.9650000000       17.6310000000
O                 3.1360000000        2.1100000000       17.6120000000
C                 5.6880000000        0.7500000000       16.3890000000
O                 6.2640000000        0.1300000000       15.2360000000
C                 6.4200000000        0.2100000000       17.5690000000
N                 3.1730000000        0.1290000000       18.6470000000
C                 2.5590000000        0.5160000000       19.9030000000
C                 3.3500000000       -0.1220000000       21.0140000000
O                 3.3660000000       -1.3390000000       21.1400000000
C                 1.1380000000       -0.0210000000       19.9830000000
O                 0.3930000000        0.3940000000       18.8240000000
C                 0.4860000000        0.5010000000       21.1670000000
N                 4.0670000000        0.6880000000       21.7680000000
C                 4.8880000000        0.2050000000       22.8510000000
C                 4.3500000000        0.7690000000       24.1740000000
O                 4.1610000000        1.9810000000       24.2690000000
C                 6.3620000000        0.6140000000       22.6520000000
C                 7.1520000000        0.2970000000       23.8740000000
C                 6.9530000000       -0.1210000000       21.4550000000
N                 4.0650000000       -0.1200000000       25.1510000000
C                 3.7200000000        0.3130000000       26.5150000000
C                 4.9410000000        0.1400000000       27.4200000000
O                 5.7140000000       -0.8090000000       27.2870000000
C                 2.4990000000       -0.4220000000       27.0620000000
O                 5.2500000000        0.9550000000       28.2940000000




