%chk=4znn_01_gebf_dft_12.chk
%nproc=56
%mem=3gb
#p  int=acc2e=12  wb97xd/6-31g ! ase formatted  and  /ru charge nosymm 

Atom number=19

1   1
c     3.42400000    0.96500000   17.63100000
o     3.13600000    2.11000000   17.61200000
n     3.17300000    0.12900000   18.64700000
c     2.55900000    0.51600000   19.90300000
c     3.35000000   -0.12200000   21.01400000
o     3.36600000   -1.33900000   21.14000000
n     4.06700000    0.68800000   21.76800000
c     4.88800000    0.20500000   22.85100000
c     4.35000000    0.76900000   24.17400000
o     4.16100000    1.98100000   24.26900000
n     4.06500000   -0.12000000   25.15100000
c     3.72000000    0.31300000   26.51500000
c     1.13800000   -0.02100000   19.98300000
o     0.39300000    0.39400000   18.82400000
c     0.48600000    0.50100000   21.16700000
h     3.94673789    0.55968361   16.78995082
h     5.91042889    0.48869974   22.71296516
h     4.57410357    0.19198451   27.14805793
h     2.86415355   -0.20219012   26.89841360

   -6.81500000    -0.66800000     1.60700000     0.123527   
   -5.71400000     0.00200000     2.37300000     0.208718   
   -4.35700000    -0.67300000     2.58800000     0.310301   
   -4.21200000    -1.87000000     2.49200000    -0.403489   
   -3.38100000     0.12500000     2.95300000    -0.414569   
   -2.06200000    -0.39000000     3.27400000     0.164654   
   -1.63600000     0.17500000     4.60000000     0.335547   
   -1.74400000     1.35600000     4.86200000    -0.422607   
   -0.99300000    -0.04500000     2.19700000    -0.840368   
    0.39000000    -0.48800000     2.64000000     0.669628   
   -1.37800000    -0.66200000     0.89700000     0.683728   
   -1.09500000    -0.70000000     5.41500000    -0.426703   
   -0.57200000    -0.31100000     6.66900000     0.200604   
    0.84000000    -0.85400000     6.79200000     0.350654   
    1.02700000    -2.02200000     6.72000000    -0.519774   
   -1.41100000    -0.91300000     7.79700000    -0.842357   
   -0.72700000    -0.64500000     9.12300000     0.778344   
   -2.80000000    -0.34900000     7.78900000     0.779592   
    1.81000000     0.00200000     7.02300000    -0.536424   
    3.19100000    -0.42900000     7.10100000     0.005697   
    3.91100000     0.25800000     8.22900000     0.358078   
    4.06400000     1.47800000     8.22800000    -0.603084   
    3.87100000    -0.10300000     5.74800000     0.307729   
    5.24700000    -0.64300000     5.58100000    -0.380299   
    5.86100000    -0.68900000     4.35300000    -0.387045   
    6.10800000    -1.19700000     6.44800000     0.461328   
    7.05900000    -1.22700000     4.48200000     0.745577   
    7.23900000    -1.52300000     5.75100000    -0.449453   
    4.36400000    -0.52700000     9.18900000    -0.522668   
    5.06700000     0.02000000    10.32600000     0.455100   
    4.27100000     0.81700000    11.29600000     0.277210   
    4.35900000     2.03300000    11.36700000    -0.398415   
    3.49200000     0.10400000    12.07300000    -0.444806   
    2.58500000     0.67700000    13.08500000     0.173363   
    3.00600000     0.04700000    14.36100000     0.331246   
    2.95800000    -1.16900000    14.51500000    -0.511220   
    1.12700000     0.33000000    12.82700000    -0.844399   
    0.24800000     0.67500000    14.03800000     0.769997   
    0.67400000     1.04700000    11.59600000     0.736494   
    3.48100000     0.88700000    15.26200000    -0.547720   
    4.16300000     0.39200000    16.44200000     0.136974   
    5.68800000     0.75000000    16.38900000    -0.091691   
    6.26400000     0.13000000    15.23600000    -0.393462   
    6.42000000     0.21000000    17.56900000     0.655763   
    6.36200000     0.61400000    22.65200000    -0.825280   
    7.15200000     0.29700000    23.87400000     0.702159   
    6.95300000    -0.12100000    21.45500000     0.794369   
    4.94100000     0.14000000    27.42000000     0.502896   
    5.71400000    -0.80900000    27.28700000    -0.210568   
    2.49900000    -0.42200000    27.06200000     0.921387   
    5.25000000     0.95500000    28.29400000    -0.020089   


