%chk=4znn_01_gebf_pm6_5.chk
%nproc=56
%mem=3gb
#p  int=acc2e=12  pm6 charge nosymm 

Atom number=18

4   1
c     3.91100000    0.25800000    8.22900000
o     4.06400000    1.47800000    8.22800000
n     4.36400000   -0.52700000    9.18900000
c     5.06700000    0.02000000   10.32600000
c     4.27100000    0.81700000   11.29600000
o     4.35900000    2.03300000   11.36700000
n     3.49200000    0.10400000   12.07300000
c     2.58500000    0.67700000   13.08500000
c     3.00600000    0.04700000   14.36100000
o     2.95800000   -1.16900000   14.51500000
n     3.48100000    0.88700000   15.26200000
c     4.16300000    0.39200000   16.44200000
c     1.12700000    0.33000000   12.82700000
c     0.24800000    0.67500000   14.03800000
c     0.67400000    1.04700000   11.59600000
h     3.39884938   -0.23067705    7.42663070
h     3.64026211    0.79731639   17.28304918
h     5.20408592    0.63639919   16.40581800

   -6.81500000    -0.66800000     1.60700000     0.183978   
   -5.71400000     0.00200000     2.37300000     0.168969   
   -4.35700000    -0.67300000     2.58800000     0.195691   
   -4.21200000    -1.87000000     2.49200000    -0.461232   
   -3.38100000     0.12500000     2.95300000    -0.300325   
   -2.06200000    -0.39000000     3.27400000     0.263878   
   -1.63600000     0.17500000     4.60000000     0.148938   
   -1.74400000     1.35600000     4.86200000    -0.309536   
   -0.99300000    -0.04500000     2.19700000    -1.221310   
    0.39000000    -0.48800000     2.64000000     0.935891   
   -1.37800000    -0.66200000     0.89700000     0.874225   
   -1.09500000    -0.70000000     5.41500000    -0.427838   
   -0.57200000    -0.31100000     6.66900000     0.244411   
    0.84000000    -0.85400000     6.79200000     0.293587   
    1.02700000    -2.02200000     6.72000000    -0.461459   
   -1.41100000    -0.91300000     7.79700000    -1.209346   
   -0.72700000    -0.64500000     9.12300000     0.983772   
   -2.80000000    -0.34900000     7.78900000     0.973661   
    1.81000000     0.00200000     7.02300000    -0.609383   
    3.19100000    -0.42900000     7.10100000    -0.038271   
    3.87100000    -0.10300000     5.74800000     0.446741   
    5.24700000    -0.64300000     5.58100000    -0.417694   
    5.86100000    -0.68900000     4.35300000    -0.296829   
    6.10800000    -1.19700000     6.44800000     0.263032   
    7.05900000    -1.22700000     4.48200000     0.610263   
    7.23900000    -1.52300000     5.75100000    -0.334673   
    3.42400000     0.96500000    17.63100000     0.316610   
    3.13600000     2.11000000    17.61200000    -0.569376   
    5.68800000     0.75000000    16.38900000    -0.317451   
    6.26400000     0.13000000    15.23600000    -0.308154   
    6.42000000     0.21000000    17.56900000     0.946340   
    3.17300000     0.12900000    18.64700000    -0.542075   
    2.55900000     0.51600000    19.90300000     0.023584   
    3.35000000    -0.12200000    21.01400000     0.184737   
    3.36600000    -1.33900000    21.14000000    -0.416317   
    1.13800000    -0.02100000    19.98300000    -0.290652   
    0.39300000     0.39400000    18.82400000    -0.341483   
    0.48600000     0.50100000    21.16700000     0.776525   
    4.06700000     0.68800000    21.76800000    -0.619090   
    4.88800000     0.20500000    22.85100000     0.283273   
    4.35000000     0.76900000    24.17400000     0.173040   
    4.16100000     1.98100000    24.26900000    -0.286115   
    6.36200000     0.61400000    22.65200000    -1.193322   
    7.15200000     0.29700000    23.87400000     0.858524   
    6.95300000    -0.12100000    21.45500000     0.959038   
    4.06500000    -0.12000000    25.15100000    -0.490732   
    3.72000000     0.31300000    26.51500000    -0.357633   
    4.94100000     0.14000000    27.42000000     0.054885   
    5.71400000    -0.80900000    27.28700000    -0.056517   
    2.49900000    -0.42200000    27.06200000     1.102324   
    5.25000000     0.95500000    28.29400000     0.311483   


