%chk=NCCONCCOCCCNCCOCCCNCCOCCNCCNNCCONCCOCCCNCCOCOCNCCOCOCNCCOCCCNCCOCO_5.chk
%nproc=56
%mem=3gb
#p pm6 pop=npa nosymm 

Atom number=18

4   1
c     3.91096904    0.25811292    8.22901660
o     4.06398892    1.47797151    8.22797878
n     4.36398407   -0.52686395    9.18903366
c     5.06702545    0.02000737   10.32597689
c     4.27105856    0.81681072   11.29599854
o     4.35894010    2.03298899   11.36695817
n     3.49194716    0.10405312   12.07291507
c     2.58488259    0.67696031   13.08500530
c     3.00597840    0.04697406   14.36112124
o     2.95796912   -1.16898864   14.51500264
n     3.48095891    0.88700977   15.26199298
c     4.16301290    0.39192950   16.44189750
c     1.12703581    0.32993683   12.82689023
c     0.24804715    0.67494598   14.03791512
c     0.67395603    1.04698056   11.59600729
h     3.39886699   -0.23063018    7.42665654
h     3.64029204    0.79724226   17.28295901
h     5.20408069    0.63642381   16.40583671


