%chk=NCCONCCOCCCNCCOCCCNCCOCCNCCNNCCONCCOCCCNCCOCOCNCCOCOCNCCOCCCNCCOCO_7.chk
%nproc=56
%mem=3gb
#p pm6 pop=npa nosymm 

Atom number=26

1   1
c     3.00597840    0.04697406   14.36112124
o     2.95796912   -1.16898864   14.51500264
n     3.48095891    0.88700977   15.26199298
c     4.16301290    0.39192950   16.44189750
c     3.42402857    0.96493089   17.63092844
o     3.13598271    2.10993977   17.61197721
n     3.17299957    0.12899197   18.64703208
c     2.55897662    0.51606694   19.90310102
c     5.68799408    0.75007065   16.38907479
o     6.26396048    0.12994953   15.23594917
c     3.34991350   -0.12203481   21.01403922
o     3.36601705   -1.33909097   21.14001122
n     4.06700083    0.68803319   21.76791684
c     4.88803798    0.20507836   22.85094867
c     4.35008215    0.76904878   24.17405323
o     4.16106345    1.98110697   24.26897759
n     4.06508418   -0.11993563   25.15091378
c     3.72006767    0.31304032   26.51498032
c     1.13794426   -0.02105688   19.98305298
o     0.39300157    0.39404483   18.82400672
c     0.48602475    0.50104634   21.16698973
h     2.70238707    0.50116610   13.44109847
h     6.21367799    0.36221629   17.23649760
h     5.91048224    0.48872838   22.71292550
h     4.57407571    0.19194018   27.14815094
h     2.86421364   -0.20215034   26.89837627


