%njobs=10
%nproc=56
%mem=3GB
%chk=NCCONCCOCCCNCCOCCCNCCOCCNCCNNCCONCCOCCCNCCOCOCNCCOCOCNCCOCCCNCCOCO.chk
%int=acc2e=12
#P pm6
scf(noincfock,novaracc,fermi,maxcycle=3000,ndamp=64,xqc)
pop(NPA)

gebf { frag=read charge=NPA }

0 1
N                -6.8150470962       -0.6680084590        1.6070769163
C                -5.7139595954        0.0019740558        2.3729799386
C                -4.3569478636       -0.6729648564        2.5879034516
O                -4.2119150847       -1.8700316745        2.4919300258
N                -3.3809828218        0.1250080979        2.9529762962
C                -2.0620763608       -0.3899578019        3.2740038232
C                -1.6360333676        0.1749661367        4.6000604552
O                -1.7440764036        1.3560012686        4.8620068673
C                -0.9929892640       -0.0449597059        2.1969264310
C                 0.3900081549       -0.4879356500        2.6400298432
C                -1.3780113270       -0.6619821421        0.8970883742
N                -1.0949690785       -0.7000642865        5.4150164741
C                -0.5719314079       -0.3110588911        6.6690025144
C                 0.8400878045       -0.8540838954        6.7920076979
O                 1.0269997648       -2.0219941518        6.7200446684
C                -1.4110412342       -0.9129115128        7.7970538812
C                -0.7271144097       -0.6449839601        9.1230588733
C                -2.7999931656       -0.3490332157        7.7890227853
N                 1.8100940482        0.0019938555        7.0230259495
C                 3.1910189297       -0.4289974934        7.1010007916
C                 3.9109690421        0.2581129184        8.2290166017
O                 4.0639889213        1.4779715123        8.2279787779
C                 3.8710029049       -0.1029774868        5.7480339588
C                 5.2470093410       -0.6430739857        5.5809978237
N                 5.8610642887       -0.6889705598        4.3529145413
C                 6.1079056097       -1.1970883507        6.4480573927
C                 7.0590871571       -1.2270162146        4.4821088082
N                 7.2390023558       -1.5229635281        5.7510587614
N                 4.3639840718       -0.5268639510        9.1890336632
C                 5.0670254529        0.0200073721       10.3259768913
C                 4.2710585562        0.8168107232       11.2959985373
O                 4.3589400978        2.0329889903       11.3669581680
N                 3.4919471570        0.1040531232       12.0729150692
C                 2.5848825941        0.6769603134       13.0850053039
C                 3.0059783998        0.0469740604       14.3611212427
O                 2.9579691179       -1.1689886449       14.5150026447
C                 1.1270358126        0.3299368298       12.8268902341
C                 0.2480471529        0.6749459846       14.0379151189
C                 0.6739560349        1.0469805619       11.5960072938
N                 3.4809589075        0.8870097677       15.2619929762
C                 4.1630129014        0.3919294994       16.4418975037
C                 3.4240285682        0.9649308901       17.6309284367
O                 3.1359827085        2.1099397740       17.6119772101
C                 5.6879940838        0.7500706504       16.3890747935
O                 6.2639604795        0.1299495331       15.2359491656
C                 6.4199916693        0.2099961850       17.5690832263
N                 3.1729995726        0.1289919748       18.6470320842
C                 2.5589766191        0.5160669406       19.9031010213
C                 3.3499134969       -0.1220348051       21.0140392172
O                 3.3660170467       -1.3390909729       21.1400112196
C                 1.1379442551       -0.0210568819       19.9830529832
O                 0.3930015736        0.3940448288       18.8240067163
C                 0.4860247463        0.5010463413       21.1669897332
N                 4.0670008328        0.6880331873       21.7679168388
C                 4.8880379818        0.2050783635       22.8509486747
C                 4.3500821542        0.7690487756       24.1740532267
O                 4.1610634516        1.9811069661       24.2689775909
C                 6.3620677261        0.6140087808       22.6519644712
C                 7.1519060258        0.2969972139       23.8739618135
C                 6.9529950334       -0.1210561140       21.4549137735
N                 4.0650841764       -0.1199356313       25.1509137804
C                 3.7200676677        0.3130403240       26.5149803210
C                 4.9409129453        0.1399218786       27.4201279646
O                 5.7139811986       -0.8089752922       27.2869667632
C                 2.4990045186       -0.4219919530       27.0619785754
O                 5.2499564601        0.9550737642       28.2940082479




