%njobs=10
%nproc=56
%mem=3GB
%chk=NCCONCCOCCCNCCOCCCNCCOCCNCCNNCCONCCOCCCNCCOCOCNCCOCOCNCCOCCCNCCOCO.chk
%int=acc2e=12
#P pm6
scf(noincfock,novaracc,fermi,maxcycle=3000,ndamp=64,xqc)

gebf{{frag=read charge=NPA}}

0 1
N                -6.8150080667       -0.6680015350        1.6070140068
C                -5.7139877150        0.0020034582        2.3729908929
C                -4.3569921860       -0.6729986987        2.5879932155
O                -4.2119920694       -1.8699946341        2.4919903234
N                -3.3810007994        0.1249904581        2.9529979954
C                -2.0620045660       -0.3900049745        3.2739992088
C                -1.6360065485        0.1749961182        4.6000072448
O                -1.7440081668        1.3560003139        4.8619909714
C                -0.9929992054       -0.0450017070        2.1970016670
C                 0.3899997577       -0.4879901330        2.6400049763
C                -1.3780015000       -0.6619894832        0.8970104938
N                -1.0950004720       -0.7000047905        5.4150045358
C                -0.5719953277       -0.3110055486        6.6689984294
C                 0.8400160145       -0.8540087410        6.7920025697
O                 1.0269987300       -2.0220013119        6.7200022544
C                -1.4109991195       -0.9129890822        7.7970084458
C                -0.7270058398       -0.6449975919        9.1230122270
C                -2.7999988351       -0.3490025188        7.7889963549
N                 1.8100071730        0.0019893933        7.0230060617
C                 3.1909957431       -0.4289930405        7.1009950112
C                 3.9109925906        0.2580170933        8.2289921500
O                 4.0639969261        1.4779980211        8.2279970048
C                 3.8709956909       -0.1029980113        5.7479942812
C                 5.2469986179       -0.6429937585        5.5809947736
N                 5.8610058548       -0.6889954742        4.3529906999
C                 6.1079918127       -1.1969997368        6.4480123144
C                 7.0590036802       -1.2270015403        4.4820073421
N                 7.2389978590       -1.5229867711        5.7510137849
N                 4.3639906013       -0.5269911953        9.1890077663
C                 5.0669961265        0.0199965156       10.3259922579
C                 4.2710016957        0.8169825100       11.2959961367
O                 4.3589876744        2.0329940440       11.3669918988
N                 3.4919925823        0.1040109775       12.0729888028
C                 2.5849863763        0.6769892863       13.0850048068
C                 3.0059975863        0.0469965329       14.3610145213
O                 2.9579929876       -1.1690043332       14.5150021476
C                 1.1269995547        0.3299974693       12.8269948124
C                 0.2479963102        0.6749935624       14.0379879477
C                 0.6739900075        1.0470014566       11.5960045211
N                 3.4810016498        0.8870014137       15.2619879690
C                 4.1630028250        0.3919937556       16.4419918561
C                 3.4240000242        0.9649876335       17.6309904477
O                 3.1360034220        2.1099994577       17.6119939098
C                 5.6879954045        0.7500142859       16.3890115689
O                 6.2639994943        0.1300057556       15.2359941987
C                 6.4199978664        0.2100010689       17.5689922891
N                 3.1730049634        0.1289969941       18.6469994496
C                 2.5590047134        0.5160084678       19.9030146970
C                 3.3499880060       -0.1220051396       21.0140061047
O                 3.3660015169       -1.3390105000       21.1399987057
C                 1.1379832571       -0.0210021773       19.9830129104
O                 0.3929990759        0.3940116754       18.8239984074
C                 0.4859983401        0.5010026308       21.1670008889
N                 4.0669991788        0.6879928941       21.7679888804
C                 4.8880042740        0.2049963557       22.8509985384
C                 4.3500056311        0.7690104435       24.1739908734
O                 4.1610116186        1.9810148225       24.2689925756
C                 6.3620115304        0.6139916346       22.6520023701
C                 7.1519920544        0.2970112282       23.8739918374
C                 6.9530022199       -0.1209989472       21.4549992246
N                 4.0650085224       -0.1199829677       25.1509910266
C                 3.7200068249        0.3130056798       26.5150090265
C                 4.9409870628        0.1399915293       27.4200155170
O                 5.7140006961       -0.8089928495       27.2870021703
C                 2.4990022065       -0.4220017769       27.0619938920
O                 5.2499920324        0.9550097462       28.2940059760




