%chk=NCCONCCOCCCNCCOCCCNCCOCCNCCNNCCONCCOCCCNCCOCOCNCCOCOCNCCOCCCNCCOCO_6.chk
%nproc=56
%mem=3gb
#p pm6 pop=npa nosymm 

Atom number=21

3   1
c     4.27105856    0.81681072   11.29599854
o     4.35894010    2.03298899   11.36695817
n     3.49194716    0.10405312   12.07291507
c     2.58488259    0.67696031   13.08500530
c     3.00597840    0.04697406   14.36112124
o     2.95796912   -1.16898864   14.51500264
n     3.48095891    0.88700977   15.26199298
c     4.16301290    0.39192950   16.44189750
c     1.12703581    0.32993683   12.82689023
c     0.24804715    0.67494598   14.03791512
c     3.42402857    0.96493089   17.63092844
o     3.13598271    2.10993977   17.61197721
n     3.17299957    0.12899197   18.64703208
c     2.55897662    0.51606694   19.90310102
c     5.68799408    0.75007065   16.38907479
o     6.26396048    0.12994953   15.23594917
c     6.41999167    0.20999619   17.56908323
h     4.84404127    0.24322587   10.59772121
h     0.80272030    0.84319832   11.94582150
h     3.12106644    0.06259144   20.69260403
h     1.55947215    0.13827283   19.95933643


