%chk=NCCONCCOCCCNCCOCCCNCCOCCNCCNNCCONCCOCCCNCCOCOCNCCOCOCNCCOCCCNCCOCO_3.chk
%nproc=56
%mem=3gb
#p pm6 pop=npa nosymm 

Atom number=23

4   1
c    -1.63603337    0.17496614    4.60006046
o    -1.74407640    1.35600127    4.86200687
n    -1.09496908   -0.70006429    5.41501647
c    -0.57193141   -0.31105889    6.66900251
c     0.84008780   -0.85408390    6.79200770
o     1.02699976   -2.02199415    6.72004467
n     1.81009405    0.00199386    7.02302595
c     3.19101893   -0.42899749    7.10100079
c    -1.41104123   -0.91291151    7.79705388
c    -0.72711441   -0.64498396    9.12305887
c     3.91096904    0.25811292    8.22901660
o     4.06398892    1.47797151    8.22797878
n     4.36398407   -0.52686395    9.18903366
c     5.06702545    0.02000737   10.32597689
c     3.87100290   -0.10297749    5.74803396
c     5.24700934   -0.64307399    5.58099782
n     5.86106429   -0.68897056    4.35291454
c     6.10790561   -1.19708835    6.44805739
c     7.05908716   -1.22701621    4.48210881
n     7.23900236   -1.52296353    5.75105876
h    -1.93933280   -0.22720245    3.65604252
h    -2.40244165   -0.51042878    7.79132148
h     4.49404274    0.59359222   11.02425422


